/*--------------------------------*- C++ -*----------------------------------*\
| =========                 |                                                 |
| \\      /  F ield         | OpenFOAM: The Open Source CFD Toolbox           |
|  \\    /   O peration     | Version:  5.x                                   |
|   \\  /    A nd           | Web:      www.OpenFOAM.org                      |
|    \\/     M anipulation  |                                                 |
\*---------------------------------------------------------------------------*/
FoamFile
{
    version     2.0;
    format      ascii;
    class       polyBoundaryMesh;
    location    "constant/polyMesh";
    object      boundary;
}
// * * * * * * * * * * * * * * * * * * * * * * * * * * * * * * * * * * * * * //

6
(
    WestWall
    {
        type            wall;
        inGroups        1(wall);
        nFaces          47;
        startFace       2839;
    }
    EastWall
    {
        type            wall;
        inGroups        1(wall);
        nFaces          51;
        startFace       2886;
    }
    TopWall
    {
        type            wall;
        inGroups        1(wall);
        nFaces          49;
        startFace       2937;
    }
    BottomWall
    {
        type            wall;
        inGroups        1(wall);
        nFaces          50;
        startFace       2986;
    }
    NorthWall
    {
        type            wall;
        inGroups        1(wall);
        nFaces          48;
        startFace       3036;
    }
    SouthWall
    {
        type            wall;
        inGroups        1(wall);
        nFaces          49;
        startFace       3084;
    }
)

// ************************************************************************* //
